
**** 05/05/19 16:07:34 ******* PSpice Lite (March 2016) ******* ID# 10813 ****

 ** Profile: "SCHEMATIC1-simulate"  [ c:\users\garmann\dropbox\uit\ite1916 - ite1844\stoppeklokke\555-timer-PSpiceFiles\SCHEMATIC1\si


 ****     CIRCUIT DESCRIPTION


******************************************************************************




** Creating circuit file "simulate.cir" 
** WARNING: THIS AUTOMATICALLY GENERATED FILE MAY BE OVERWRITTEN BY SUBSEQUENT SIMULATIONS

*Libraries: 
* Profile Libraries :
* Local Libraries :
* From [PSPICE NETLIST] section of C:\Users\Garmann\AppData\Roaming\SPB_Data\cdssetup\OrCAD_PSpice\17.2.0\PSpice.ini file:
.lib "nomd.lib" 

*Analysis directives: 
.TRAN  0 1000ns 0 
.OPTIONS ADVCONV
.PROBE64 V(alias(*)) I(alias(*)) W(alias(*)) D(alias(*)) NOISE(alias(*)) 
.INC "..\SCHEMATIC1.net" 



**** INCLUDING SCHEMATIC1.net ****
* source 555-TIMER
X_U1         GND N00184 N000742 VCC N00450 N00184 N00256 VCC 555B
R_R1         N00256 VCC  8.2k TC=0,0 
R_R2         N00184 N00256  68k TC=0,0 
C_C1         GND N00184  1u  TC=0,0 
V_V1         VCC GND DC 5V  
C_C2         GND N00450  1n  TC=0,0 
R_R3         N000742 GND  1k TC=0,0 

**** RESUMING simulate.cir ****
.END

INFO(ORPSIM-15423): Unable to find index file nomd.ind for library file nomd.lib.

INFO(ORPSIM-15422): Making new index file nomd.ind for library file nomd.lib.

Index has 34104 entries from 205 file(s).

ERROR -- Circuit Too Large!
EVALUATION VERSION Limit Exceeded for "Q" Devices!


